Version 4.1
SHEET 1 880 680
WIRE 368 -32 80 -32
WIRE 368 -16 368 -32
WIRE 80 80 80 -32
WIRE 128 80 80 80
WIRE 240 80 192 80
WIRE 304 80 240 80
WIRE 80 128 80 80
WIRE 240 128 240 80
WIRE 80 240 80 192
WIRE 128 240 80 240
WIRE 240 240 240 192
WIRE 240 240 192 240
WIRE 368 240 368 64
WIRE 368 240 240 240
WIRE 80 256 80 240
WIRE 80 352 80 336
WIRE 304 352 304 80
WIRE 304 352 80 352
WIRE 80 368 80 352
FLAG 80 368 0
SYMBOL diode 192 64 R90
WINDOW 0 0 32 VBottom 2
WINDOW 3 32 32 VTop 2
SYMATTR InstName D1
SYMBOL diode 256 192 R180
WINDOW 0 24 64 Left 2
WINDOW 3 24 0 Invisible 2
SYMATTR InstName D2
SYMBOL diode 192 224 R90
WINDOW 0 0 32 VBottom 2
WINDOW 3 32 32 VTop 2
SYMATTR InstName D3
SYMBOL diode 96 192 R180
WINDOW 0 24 64 Left 2
WINDOW 3 24 0 Invisible 2
SYMATTR InstName D4
SYMBOL res 352 -32 R0
SYMATTR InstName R1
SYMATTR Value 10K
SYMBOL voltage 80 240 R0
WINDOW 0 -66 14 Left 2
WINDOW 3 -193 86 Left 2
WINDOW 123 0 0 Left 0
WINDOW 39 0 0 Left 0
SYMATTR InstName V1
SYMATTR Value SINE(0 12 60)
TEXT -112 352 Left 2 !.tran 100m
